KYPO
Cerit-SC
WS-PGRADE
DIRAC
ppk
sshuttle
pip
TESK
WES
NVIDIA DGX-2
nvidia
smi
nvidia-smi
NICE
DGX-2
DGX
DCV
In
CAE
CUBE
GPU
GSL
LMGC90
LS-DYNA
MAPDL
GPI-2
COM
.ssh
Anselm
IT4I
IT4Innovations
PBS
Salomon
TurboVNC
VNC
DDR3
DIMM
InfiniBand
CUDA
ORCA
COMSOL
API
GNU
CUDA
NVIDIA
LiveLink
MATLAB
Allinea
LLNL
Vampir
Doxygen
VTune
TotalView
Valgrind
ParaView
OpenFOAM
MAX_FAIRSHARE
MPI4Py
MPICH2
PETSc
Trilinos
FFTW
HDF5
BiERapp
AVX
AVX2
JRE
JDK
QEMU
VMware
VirtualBox
NUMA
SMP
BLAS
LAPACK
FFTW3
Dongarra
OpenCL
cuBLAS
CESNET
Jihlava
NVIDIA
Xeon
ANSYS
CentOS
RHEL
DDR4
DIMMs
GDDR5
EasyBuild
e.g.
MPICH
MVAPICH2
OpenBLAS
ScaLAPACK
PAPI
SGI
UV2000
VM
400GB
Mellanox
RedHat
ssh.du1.cesnet.cz
ssh.du2.cesnet.cz
ssh.du3.cesnet.cz
DECI
supercomputing
AnyConnect
X11
backfilling
backfilled
SCP
Lustre
QDR
TFLOP
ncpus
myjob
pernode
mpiprocs
ompthreads
qprace
runtime
SVS
ppn
Multiphysics
aeroacoustics
turbomachinery
CFD
LS-DYNA
APDL
MAPDL
multiphysics
AUTODYN
RSM
Molpro
initio
parallelization
NWChem
SCF
ISV
profiler
Pthreads
profilers
OTF
PAPI
PCM
uncore
pre-processing
prepend
CXX
prepended
POMP2
Memcheck
unaddressable
OTF2
GPI-2
GASPI
GPI
MKL
IPP
TBB
GSL
Omics
VNC
Scalasca
IFORT
interprocedural
IDB
cloop
qcow
qcow2
vmdk
vdi
virtio
paravirtualized
Gbit
tap0
UDP
TCP
preload
qfat
Rmpi
DCT
datasets
dataset
preconditioners
partitioners
PARDISO
PaStiX
SuiteSparse
SuperLU
ExodusII
NetCDF
ParMETIS
multigrid
HYPRE
SPAI
Epetra
EpetraExt
Tpetra
64-bit
Belos
GMRES
Amesos
IFPACK
preconditioner
Teuchos
Makefiles
SAXPY
NVCC
VCF
HGMD
HUMSAVAR
ClinVar
indels
CIBERER
exomes
tmp
SSHFS
RSYNC
unmount
Cygwin
CygwinX
RFB
TightVNC
TigerVNC
GUIs
XLaunch
UTF-8
numpad
PuTTYgen
OpenSSH
IE11
x86
r21u01n577
7120P
interprocessor
IPN
toolchains
toolchain
APIs
easyblocks
GM200
GeForce
GTX
IRUs
ASIC
backplane
ICEX
IRU
PFLOP
T950B
ifconfig
inet
addr
checkbox
appfile
programmatically
http
https
filesystem
phono3py
HDF
splitted
automize
llvm
PGI
GUPC
BUPC
IBV
Aislinn
nondeterminism
stdout
stderr
i.e.
pthreads
uninitialised
broadcasted
ITAC
hotspots
Bioinformatics
semiempirical
DFT
polyfill
ES6
HTML5Rocks
minifiers
CommonJS
PhantomJS
bundlers
Browserify
versioning
isflowing
ispaused
NPM
sublicense
Streams2
Streams3
blogpost
GPG
mississippi
Uint8Arrays
Uint8Array
endianness
styleguide
noop
MkDocs
 - docs.it4i/anselm-cluster-documentation/environment-and-modules.md
MODULEPATH
bashrc
PrgEnv-gnu
bullx
MPI
PrgEnv-intel
EasyBuild
 - docs.it4i/anselm-cluster-documentation/capacity-computing.md
capacity.zip
README
 - docs.it4i/anselm-cluster-documentation/compute-nodes.md
DIMMs
 - docs.it4i/anselm-cluster-documentation/hardware-overview.md
cn
K20
Xeon
x86-64
Virtualization
virtualization
NVIDIA
5110P
SSD
lscratch
login1
login2
dm1
Rpeak
LINPACK
Rmax
E5-2665
E5-2470
P5110
isw
 - docs.it4i/anselm-cluster-documentation/introduction.md
RedHat
 - docs.it4i/anselm-cluster-documentation/job-priority.md
walltime
qexp
_List.fairshare
_time
_FAIRSHARE
1E6
 - docs.it4i/anselm-cluster-documentation/job-submission-and-execution.md
15209.srv11
qsub
15210.srv11
pwd
cn17.bullx
cn108.bullx
cn109.bullx
cn110.bullx
pdsh
hostname
SCRDIR
mkdir
mpiexec
qprod
Jobscript
jobscript
cn108
cn109
cn110
Name0
cn17
_NODEFILE
_O
_WORKDIR
mympiprog.x
_JOBID
myprog.x
openmpi
 - docs.it4i/anselm-cluster-documentation/network.md
ib0
 - docs.it4i/anselm-cluster-documentation/prace.md
PRACE
qfree
it4ifree
it4i.portal.clients
prace
1h
 - docs.it4i/anselm-cluster-documentation/shell-and-data-access.md
VPN
 - docs.it4i/anselm-cluster-documentation/software/ansys/ansys-cfx.md
ANSYS
CFX
cfx.pbs
_r
ane3fl
 - docs.it4i/anselm-cluster-documentation/software/ansys/ansys-mechanical-apdl.md
mapdl.pbs
_dy
 - docs.it4i/anselm-cluster-documentation/software/ansys/ls-dyna.md
HPC
lsdyna.pbs
 - docs.it4i/anselm-cluster-documentation/software/chemistry/molpro.md
OpenMP
 - docs.it4i/anselm-cluster-documentation/software/compilers.md
Fortran
 - docs.it4i/anselm-cluster-documentation/software/debuggers/intel-performance-counter-monitor.md
E5-2600
 - docs.it4i/anselm-cluster-documentation/software/debuggers/score-p.md
Makefile
 - docs.it4i/anselm-cluster-documentation/software/gpi2.md
gcc
cn79
helloworld
_gpi.c
ibverbs
gaspi
_logger
 - docs.it4i/anselm-cluster-documentation/software/intel-suite/intel-compilers.md
Haswell
CPUs
ipo
O3
vec
xAVX
omp
simd
ivdep
pragmas
openmp
xCORE-AVX2
axCORE-AVX2
 - docs.it4i/anselm-cluster-documentation/software/kvirtualization.md
rc.local
runlevel
RDP
DHCP
DNS
SMB
VDE
smb.conf
TMPDIR
run.bat.
slirp
NATs
 - docs.it4i/anselm-cluster-documentation/software/mpi/mpi4py-mpi-for-python.md
NumPy
 - docs.it4i/anselm-cluster-documentation/software/numerical-languages/matlab_1314.md
mpiLibConf.m
matlabcode.m
output.out
matlabcodefile
sched
_feature
 - docs.it4i/anselm-cluster-documentation/software/numerical-languages/matlab.md
UV2000
maxNumCompThreads
SalomonPBSPro
 - docs.it4i/anselm-cluster-documentation/software/numerical-languages/octave.md
_THREADS
_NUM
 - docs.it4i/anselm-cluster-documentation/software/numerical-libraries/trilinos.md
CMake-aware
Makefile.export
_PACKAGE
_CXX
_COMPILER
_INCLUDE
_DIRS
_LIBRARY
 - docs.it4i/anselm-cluster-documentation/software/ansys/ansys-ls-dyna.md
ansysdyna.pbs
 - docs.it4i/anselm-cluster-documentation/software/ansys/ansys.md
svsfem.cz
_
 - docs.it4i/anselm-cluster-documentation/software/debuggers/valgrind.md
libmpiwrap-amd64-linux
O0
valgrind
malloc
_PRELOAD
 - docs.it4i/anselm-cluster-documentation/software/numerical-libraries/magma-for-intel-xeon-phi.md
cn204
_LIBS
MAGMAROOT
_magma
_server
_anselm
_from
_mic.sh
_dgetrf
_mic
_03.pdf
 - docs.it4i/anselm-cluster-documentation/software/paraview.md
cn77
localhost
v4.0.1
 - docs.it4i/anselm-cluster-documentation/storage.md
ssh.du1.cesnet.cz
Plzen
ssh.du2.cesnet.cz
ssh.du3.cesnet.cz
tier1
_home
_cache
_tape
 - docs.it4i/salomon/environment-and-modules.md
icc
ictce
ifort
imkl
intel
gompi
goolf
BLACS
iompi
iccifort
 - docs.it4i/salomon/hardware-overview.md
HW
E5-4627v2
 - docs.it4i/salomon/job-submission-and-execution.md
15209.isrv5
r21u01n577
r21u02n578
r21u03n579
r21u04n580
qsub
15210.isrv5
pwd
r2i5n6.ib0.smc.salomon.it4i.cz
r4i6n13.ib0.smc.salomon.it4i.cz
r4i7n2.ib0.smc.salomon.it4i.cz
pdsh
r2i5n6
r4i6n13
r4i7n
r4i7n2
r4i7n0
SCRDIR
myjob
mkdir
mympiprog.x
mpiexec
myprog.x
r4i7n0.ib0.smc.salomon.it4i.cz
 - docs.it4i/salomon/7d-enhanced-hypercube.md
cns1
cns576
r1i0n0
r4i7n17
cns577
cns1008
r37u31n1008
7D
 - docs.it4i/anselm-cluster-documentation/resources-allocation-policy.md
qsub
it4ifree
it4i.portal.clients
x86
x64
 - docs.it4i/anselm-cluster-documentation/software/ansys/ansys-fluent.md
anslic
_admin
 - docs.it4i/anselm-cluster-documentation/software/chemistry/nwchem.md
_DIR
 - docs.it4i/anselm-cluster-documentation/software/comsol-multiphysics.md
EDU
comsol
_matlab.pbs
_job.m
mphstart
 - docs.it4i/anselm-cluster-documentation/software/debuggers/allinea-performance-reports.md
perf-report
perf
txt
html
mympiprog
_32p
 - docs.it4i/anselm-cluster-documentation/software/debuggers/intel-vtune-amplifier.md
Hotspots
 - docs.it4i/anselm-cluster-documentation/software/debuggers/scalasca.md
scorep
 - docs.it4i/anselm-cluster-documentation/software/isv_licenses.md
edu
ansys
_features
_state.txt
f1
matlab
acfd
_ansys
_acfd
_aa
_comsol
HEATTRANSFER
_HEATTRANSFER
COMSOLBATCH
_COMSOLBATCH
STRUCTURALMECHANICS
_STRUCTURALMECHANICS
_matlab
_Toolbox
_Image
_Distrib
_Comp
_Engine
_Acquisition
pmode
matlabpool
 - docs.it4i/anselm-cluster-documentation/software/mpi/mpi.md
mpirun
BLAS1
FFT
KMP
_AFFINITY
GOMP
_CPU
bullxmpi-1
mpich2
 - docs.it4i/anselm-cluster-documentation/software/mpi/Running_OpenMPI.md
bysocket
bycore
 - docs.it4i/anselm-cluster-documentation/software/numerical-libraries/fftw.md
gcc3.3.3
pthread
fftw3
lfftw3
_threads-lfftw3
_omp
icc3.3.3
FFTW2
gcc2.1.5
fftw2
lfftw
_threads
icc2.1.5
fftw-mpi3
_mpi
fftw3-mpi
fftw2-mpi
IntelMPI
 - docs.it4i/anselm-cluster-documentation/software/numerical-libraries/gsl.md
dwt.c
mkl
lgsl
 - docs.it4i/anselm-cluster-documentation/software/numerical-libraries/hdf5.md
icc
hdf5
_INC
_SHLIB
_CPP
_LIB
_F90
gcc49
 - docs.it4i/anselm-cluster-documentation/software/numerical-libraries/petsc.md
_Dist
 - docs.it4i/anselm-cluster-documentation/software/nvidia-cuda.md
lcublas
 - docs.it4i/anselm-cluster-documentation/software/operating-system.md
6.x
 - docs.it4i/get-started-with-it4innovations/accessing-the-clusters/graphical-user-interface/cygwin-and-x11-forwarding.md
startxwin
cygwin64binXWin.exe
tcp
 - docs.it4i/get-started-with-it4innovations/accessing-the-clusters/graphical-user-interface/x-window-system.md
Xming
XWin.exe.
 - docs.it4i/get-started-with-it4innovations/accessing-the-clusters/shell-access-and-data-transfer/pageant.md
_rsa.ppk
 - docs.it4i/get-started-with-it4innovations/accessing-the-clusters/shell-access-and-data-transfer/puttygen.md
_keys
organization.example.com
_rsa
 - docs.it4i/get-started-with-it4innovations/accessing-the-clusters/shell-access-and-data-transfer/vpn-connection-fail-in-win-8.1.md
vpnui.exe
 - docs.it4i/salomon/ib-single-plane-topology.md
36-port
Mcell.pdf
r21-r38
nodes.pdf
 - docs.it4i/salomon/introduction.md
E5-2680v3
 - docs.it4i/salomon/network.md
r4i1n0
r4i1n1
r4i1n2
r4i1n3
ip
 - docs.it4i/salomon/software/ansys/setting-license-preferences.md
ansys161
 - docs.it4i/salomon/software/ansys/workbench.md
mpifile.txt
solvehandlers.xml
 - docs.it4i/salomon/software/chemistry/phono3py.md
vasprun.xml
disp-XXXXX
disp
_fc3.yaml
ir
_grid
_points.yaml
gofree-cond1
 - docs.it4i/salomon/software/compilers.md
HPF
 - docs.it4i/salomon/software/comsol/licensing-and-available-versions.md
ver
 - docs.it4i/salomon/software/debuggers/aislinn.md
test.cpp
 - docs.it4i/salomon/software/debuggers/intel-vtune-amplifier.md
vtune
_update1
 - docs.it4i/salomon/software/debuggers/valgrind.md
EBROOTVALGRIND
 - docs.it4i/salomon/software/intel-suite/intel-advisor.md
O2
 - docs.it4i/salomon/software/intel-suite/intel-compilers.md
UV1
 - docs.it4i/salomon/software/numerical-languages/octave.md
octcode.m
mkoctfile
 - docs.it4i/software/orca.md
pdf
 - node_modules/es6-promise/README.md
rsvp.js
es6-promise
es6-promise-min
Node.js
testem
 - node_modules/spawn-sync/lib/json-buffer/README.md
node.js
 - node_modules/spawn-sync/node_modules/concat-stream/node_modules/readable-stream/doc/wg-meetings/2015-01-30.md
WG
domenic
mikeal
io.js
sam
calvin
whatwg
compat
mathias
isaac
chris
 - node_modules/spawn-sync/node_modules/concat-stream/node_modules/readable-stream/node_modules/core-util-is/README.md
core-util-is
v0.12.
 - node_modules/spawn-sync/node_modules/concat-stream/node_modules/readable-stream/node_modules/isarray/README.md
isarray
Gruber
julian
juliangruber.com
NONINFRINGEMENT
 - node_modules/spawn-sync/node_modules/concat-stream/node_modules/readable-stream/node_modules/process-nextick-args/license.md
Metcalf
 - node_modules/spawn-sync/node_modules/concat-stream/node_modules/readable-stream/node_modules/process-nextick-args/readme.md
process-nextick-args
process.nextTick
 - node_modules/spawn-sync/node_modules/concat-stream/node_modules/readable-stream/node_modules/string_decoder/README.md
_decoder.js
Joyent
joyent
repo
 - node_modules/spawn-sync/node_modules/concat-stream/node_modules/readable-stream/node_modules/util-deprecate/History.md
kumavis
jsdocs
 - node_modules/spawn-sync/node_modules/concat-stream/node_modules/readable-stream/node_modules/util-deprecate/README.md
util-deprecate
Rajlich
 - node_modules/spawn-sync/node_modules/concat-stream/node_modules/readable-stream/README.md
v7.0.0
userland
chrisdickinson
christopher.s.dickinson
gmail.com
9554F04D7259F04124DE6B476D5A82AC7E37093B
calvinmetcalf
calvin.metcalf
F3EF5F62A87FC27A22E643F714CE4FF5015AA242
Vagg
rvagg
vagg.org
DD8F2338BAE7501E3DD5AC78C273792F7D83545D
sonewman
newmansam
outlook.com
Buus
mafintosh
mathiasbuus
Denicola
domenic.me
Matteo
Collina
mcollina
matteo.collina
3ABC01543F22DD2239285CDD818674489FBC127E
 - node_modules/spawn-sync/node_modules/concat-stream/readme.md
concat-stream
concat
cb
 - node_modules/spawn-sync/node_modules/os-shim/README.md
0.10.x
os.tmpdir
os.endianness
os.EOL
os.platform
os.arch
0.4.x
Aparicio
Adesis
Netlife
S.L
 - node_modules/spawn-sync/node_modules/try-thread-sleep/node_modules/thread-sleep/README.md
node-pre-gyp
npm
 - node_modules/spawn-sync/README.md
iojs
UCX
Dask-ssh
SCRATCH
HOME
PROJECT
e-INFRA
e-INFRA CZ
DICE
TOTP
